Version 4
SHEET 1 2548 680
WIRE 736 -736 656 -736
WIRE 896 -736 816 -736
WIRE 656 -704 656 -736
WIRE -192 -688 -192 -720
WIRE 16 -688 16 -720
WIRE 208 -688 208 -720
WIRE 656 -592 656 -624
WIRE 704 -592 656 -592
WIRE 800 -592 768 -592
WIRE 896 -592 896 -736
WIRE 896 -592 864 -592
WIRE 544 -528 544 -560
WIRE 656 -512 656 -592
WIRE 752 -512 656 -512
WIRE 896 -512 896 -592
WIRE 896 -512 816 -512
WIRE 208 -496 208 -560
WIRE 320 -416 320 -560
WIRE 656 -384 656 -512
WIRE 768 -384 656 -384
WIRE -144 -368 -208 -368
WIRE -80 -368 -144 -368
WIRE 48 -368 0 -368
WIRE 208 -368 208 -416
WIRE 208 -368 112 -368
WIRE 256 -368 208 -368
WIRE 672 -368 640 -368
WIRE 896 -368 896 -512
WIRE 896 -368 832 -368
WIRE 928 -368 896 -368
WIRE 1088 -368 1008 -368
WIRE 544 -352 544 -448
WIRE 640 -352 640 -368
WIRE 640 -352 544 -352
WIRE 672 -352 672 -368
WIRE 768 -352 672 -352
WIRE 416 -320 320 -320
WIRE 544 -320 544 -352
WIRE 544 -320 480 -320
WIRE 656 -320 656 -384
WIRE 1088 -320 1088 -368
WIRE -144 -304 -144 -368
WIRE 320 -288 320 -320
WIRE -144 -176 -144 -224
WIRE 320 -176 320 -208
WIRE 800 -176 800 -336
WIRE 1088 -176 1088 -256
WIRE 48 -32 -32 -32
WIRE -32 -16 -32 -32
WIRE -32 -16 -48 -16
WIRE 144 -16 112 -16
WIRE 192 -16 144 -16
WIRE 304 -16 256 -16
WIRE 448 -16 384 -16
WIRE 48 0 -256 0
WIRE -512 16 -912 16
WIRE -256 16 -256 0
WIRE -256 16 -512 16
WIRE -48 16 -48 -16
WIRE -32 16 -48 16
WIRE -32 48 -32 16
WIRE -32 48 -80 48
WIRE 80 48 80 16
WIRE 448 80 448 -16
WIRE 880 112 880 -16
WIRE -512 128 -512 16
WIRE -480 128 -512 128
WIRE -368 128 -400 128
WIRE -336 128 -368 128
WIRE -224 128 -256 128
WIRE -80 128 -80 48
WIRE -80 128 -224 128
WIRE -368 144 -368 128
WIRE -32 144 -32 48
WIRE 32 144 -32 144
WIRE 144 144 144 -16
WIRE 144 144 112 144
WIRE 528 160 448 160
WIRE 720 160 672 160
WIRE 816 160 720 160
WIRE 720 192 720 160
WIRE 976 208 880 208
WIRE 1184 208 1120 208
WIRE 880 224 880 208
WIRE 1184 224 1184 208
WIRE -368 240 -368 208
WIRE -32 240 -32 144
WIRE 48 240 -32 240
WIRE 144 240 144 144
WIRE 144 240 112 240
WIRE 448 288 448 240
WIRE 720 288 720 272
WIRE -368 336 -368 320
WIRE 880 336 880 304
WIRE 1184 336 1184 304
WIRE -512 384 -512 128
WIRE -464 384 -512 384
WIRE -368 384 -400 384
WIRE -336 384 -368 384
WIRE -224 384 -224 128
WIRE -224 384 -272 384
WIRE -368 416 -368 384
WIRE -368 512 -368 496
FLAG -192 -688 0
FLAG 16 -688 0
FLAG 208 -688 0
FLAG -192 -800 GTR
FLAG 16 -800 VCC
FLAG 208 -800 VCC/2
FLAG 208 -560 VCC/2
FLAG -144 -176 0
FLAG -208 -368 GTR
FLAG 320 -176 0
FLAG 320 -560 VCC
FLAG 544 -560 VCC/2
FLAG 544 -320 Buffer_In
FLAG 1088 -176 0
FLAG 656 -176 VCC/2
FLAG 800 -176 0
FLAG 800 -400 VCC
FLAG 896 -368 Gain_out
FLAG 1088 -368 Tone_in
FLAG 80 -48 VCC
FLAG 80 48 0
FLAG 448 288 0
FLAG 880 -16 VCC
FLAG 720 288 VCC/2
FLAG 880 336 0
FLAG 1184 336 0
FLAG 1184 208 OUT
FLAG 448 -16 Tone_out
FLAG 720 160 Vol_out
FLAG -368 512 0
FLAG -912 16 Tone_in
FLAG -368 336 0
SYMBOL voltage -192 -816 R0
WINDOW 3 -96 159 Left 2
WINDOW 123 -96 187 Left 2
WINDOW 39 0 0 Left 0
SYMATTR Value SINE(0 150m 1.5k)
SYMATTR Value2 AC 200m
SYMATTR InstName V1
SYMBOL voltage 16 -816 R0
WINDOW 123 0 0 Left 0
WINDOW 39 0 0 Left 0
SYMATTR InstName V2
SYMATTR Value 9
SYMBOL voltage 208 -816 R0
WINDOW 123 0 0 Left 0
WINDOW 39 0 0 Left 0
SYMATTR InstName V3
SYMATTR Value 4.5
SYMBOL res -128 -208 R180
WINDOW 0 36 76 Left 2
WINDOW 3 36 40 Left 2
SYMATTR InstName R1
SYMATTR Value 2200k
SYMBOL res -96 -352 R270
WINDOW 0 32 56 VTop 2
WINDOW 3 0 56 VBottom 2
SYMATTR InstName R2
SYMATTR Value 10k
SYMBOL res 224 -400 R180
WINDOW 0 36 76 Left 2
WINDOW 3 36 40 Left 2
SYMATTR InstName R3
SYMATTR Value 470k
SYMBOL res 336 -192 R180
WINDOW 0 36 76 Left 2
WINDOW 3 36 40 Left 2
SYMATTR InstName R4
SYMATTR Value 10k
SYMBOL res 560 -432 R180
WINDOW 0 36 76 Left 2
WINDOW 3 36 40 Left 2
SYMATTR InstName R5
SYMATTR Value 100k
SYMBOL cap 48 -352 R270
WINDOW 0 32 32 VTop 2
WINDOW 3 0 32 VBottom 2
SYMATTR InstName C1
SYMATTR Value 47n
SYMBOL cap 416 -304 R270
WINDOW 0 32 32 VTop 2
WINDOW 3 0 32 VBottom 2
SYMATTR InstName C2
SYMATTR Value 18n
SYMBOL npn 256 -416 R0
SYMATTR InstName Q1
SYMBOL Opamps\\UniversalOpamp2 800 -368 R0
SYMATTR InstName U1
SYMBOL cap 672 -176 R180
WINDOW 0 24 56 Left 2
WINDOW 3 24 8 Left 2
SYMATTR InstName C3
SYMATTR Value 47n
SYMBOL res 640 -336 R0
SYMATTR InstName R6
SYMATTR Value 4.7k
SYMBOL res 640 -720 R0
SYMATTR InstName R7
SYMATTR Value 33k
SYMBOL res 832 -752 R90
WINDOW 0 0 56 VBottom 2
WINDOW 3 32 56 VTop 2
SYMATTR InstName R8
SYMATTR Value 1000k
SYMBOL res 1024 -384 R90
WINDOW 0 0 56 VBottom 2
WINDOW 3 32 56 VTop 2
SYMATTR InstName R9
SYMATTR Value 10k
SYMBOL cap 1072 -320 R0
SYMATTR InstName C4
SYMATTR Value 10n
SYMBOL diode 752 -496 R270
WINDOW 0 32 32 VTop 2
WINDOW 3 0 32 VBottom 2
SYMATTR InstName D1
SYMATTR Value 1N914
SYMBOL diode 768 -608 R90
WINDOW 0 0 32 VBottom 2
WINDOW 3 32 32 VTop 2
SYMATTR InstName D3
SYMATTR Value 1N914
SYMBOL diode 864 -608 R90
WINDOW 0 0 32 VBottom 2
WINDOW 3 32 32 VTop 2
SYMATTR InstName D2
SYMATTR Value 1N914
SYMBOL Opamps\\UniversalOpamp2 80 -16 R0
SYMATTR InstName U2
SYMBOL res 128 128 R90
WINDOW 0 0 56 VBottom 2
WINDOW 3 32 56 VTop 2
SYMATTR InstName R13
SYMATTR Value 10k
SYMBOL res 400 -32 R90
WINDOW 0 0 56 VBottom 2
WINDOW 3 32 56 VTop 2
SYMATTR InstName R14
SYMATTR Value 4.7k
SYMBOL cap 112 224 R90
WINDOW 0 0 32 VBottom 2
WINDOW 3 32 32 VTop 2
SYMATTR InstName C6
SYMATTR Value 10n
SYMBOL cap 256 -32 R90
WINDOW 0 0 32 VBottom 2
WINDOW 3 32 32 VTop 2
SYMATTR InstName C7
SYMATTR Value 1µ
SYMBOL res 432 64 R0
SYMATTR InstName R15
SYMATTR Value 1
SYMBOL res 432 144 R0
SYMATTR InstName R16
SYMATTR Value 10k
SYMBOL res 624 144 R90
WINDOW 0 0 56 VBottom 2
WINDOW 3 32 56 VTop 2
SYMATTR InstName R17
SYMATTR Value 22k
SYMBOL res 736 288 R180
WINDOW 0 36 76 Left 2
WINDOW 3 36 40 Left 2
SYMATTR InstName R18
SYMATTR Value 1000k
SYMBOL res 896 320 R180
WINDOW 0 36 76 Left 2
WINDOW 3 36 40 Left 2
SYMATTR InstName R19
SYMATTR Value 10k
SYMBOL res 1200 320 R180
WINDOW 0 36 76 Left 2
WINDOW 3 36 40 Left 2
SYMATTR InstName R20
SYMATTR Value 100k
SYMBOL npn 816 112 R0
SYMATTR InstName Q2
SYMBOL cap 672 144 R90
WINDOW 0 0 32 VBottom 2
WINDOW 3 32 32 VTop 2
SYMATTR InstName C8
SYMATTR Value 47n
SYMBOL cap 1120 192 R90
WINDOW 0 0 32 VBottom 2
WINDOW 3 32 32 VTop 2
SYMATTR InstName C9
SYMATTR Value 1µ
SYMBOL res 1072 192 R90
WINDOW 0 0 56 VBottom 2
WINDOW 3 32 56 VTop 2
SYMATTR InstName R21
SYMATTR Value 1k
SYMBOL res -240 112 R90
WINDOW 0 0 56 VBottom 2
WINDOW 3 34 63 VTop 2
SYMATTR InstName R22
SYMATTR Value 10k
SYMBOL cap -352 208 R180
WINDOW 0 24 56 Left 2
WINDOW 3 24 8 Left 2
SYMATTR InstName C11
SYMATTR Value 27n
SYMBOL res -384 112 R90
WINDOW 0 0 56 VBottom 2
WINDOW 3 32 56 VTop 2
SYMATTR InstName R23
SYMATTR Value 10k
SYMBOL cap -464 400 R270
WINDOW 0 32 32 VTop 2
WINDOW 3 0 32 VBottom 2
SYMATTR InstName C10
SYMATTR Value 68n
SYMBOL cap -336 400 R270
WINDOW 0 32 32 VTop 2
WINDOW 3 9 32 VBottom 2
SYMATTR InstName C12
SYMATTR Value 68n
SYMBOL res -384 400 R0
SYMATTR InstName R24
SYMATTR Value 5k
SYMBOL res -384 224 R0
SYMATTR InstName R11
SYMATTR Value 470
TEXT -288 -544 Left 2 !.tran 0 1m 0
